@<TRIPOS>MOLECULE
TPF
  152   157     1     0     0
SMALL
resp


@<TRIPOS>ATOM
      1 C1           0.9130    -1.3240    -0.0260 ca         1 TPF      -0.129690
      2 C2           0.8640    -0.0230     0.5170 cp         1 TPF       0.037570
      3 C3           1.1450     0.1390     1.8890 ca         1 TPF      -0.170740
      4 C4           1.4410    -0.9490     2.7100 ca         1 TPF      -0.138640
      5 C5           1.4650    -2.2320     2.1590 cp         1 TPF      -0.059580
      6 C6           1.2110    -2.4110     0.7850 ca         1 TPF       0.128480
      7 H1           0.6750    -1.4690    -1.0770 ha         1 TPF       0.097120
      8 H2           1.1450     1.1380     2.3140 ha         1 TPF       0.136700
      9 H3           1.6500    -0.7890     3.7650 ha         1 TPF       0.138560
     10 C7           1.2760    -3.8920     0.4090 c3         1 TPF       0.026600
     11 C8           1.5780    -4.5310     1.7660 ca         1 TPF       0.221390
     12 C9           1.6970    -3.5470     2.7690 cp         1 TPF      -0.037550
     13 C10          1.7420    -5.8760     2.0820 ca         1 TPF      -0.185860
     14 C11          1.9810    -3.9080     4.0880 ca         1 TPF      -0.143310
     15 C12          2.0260    -6.2380     3.4050 ca         1 TPF      -0.137530
     16 H4           1.6520    -6.6450     1.3170 ha         1 TPF       0.121040
     17 C13          2.1450    -5.2600     4.3980 ca         1 TPF      -0.135550
     18 H5           2.0720    -3.1540     4.8650 ha         1 TPF       0.135810
     19 H6           2.1540    -7.2860     3.6620 ha         1 TPF       0.000000
     20 H7           2.3650    -5.5550     5.4200 ha         1 TPF       0.135930
     21 C14          0.4870     1.1370    -0.3280 cp         1 TPF       0.011750
     22 C15         -0.2920     2.1860     0.2030 ca         1 TPF      -0.130070
     23 C16          0.8680     1.2030    -1.6820 ca         1 TPF      -0.173430
     24 C17         -0.6800     3.2470    -0.6020 ca         1 TPF       0.139320
     25 H8          -0.6150     2.1390     1.2400 ha         1 TPF       0.101650
     26 C18          0.4820     2.2660    -2.4980 ca         1 TPF      -0.145850
     27 H9           1.4960     0.4190    -2.0950 ha         1 TPF       0.118830
     28 C19         -1.5330     4.4610    -0.2360 c3         1 TPF       0.077910
     29 C20         -0.3010     3.2890    -1.9590 cp         1 TPF      -0.028570
     30 H10          0.7940     2.2920    -3.5390 ha         1 TPF       0.134110
     31 C21         -1.6010     5.1890    -1.5790 ca         1 TPF       0.205000
     32 C22         -0.8710     4.4960    -2.5670 cp         1 TPF      -0.053730
     33 C23         -2.2510     6.3770    -1.8960 ca         1 TPF      -0.163660
     34 C24         -0.7910     4.9890    -3.8720 ca         1 TPF      -0.141300
     35 C25         -2.1710     6.8700    -3.2040 ca         1 TPF      -0.133920
     36 H11         -2.8140     6.9240    -1.1440 ha         1 TPF       0.122970
     37 C26         -1.4460     6.1820    -4.1830 ca         1 TPF      -0.132830
     38 H12         -0.2270     4.4580    -4.6350 ha         1 TPF       0.129270
     39 H13         -2.6740     7.7980    -3.4610 ha         1 TPF       0.000000 
     40 H14         -1.3920     6.5790    -5.1930 ha         1 TPF       0.132540
     41 C27          2.4100    -4.1770    -0.6220 c3         1 TPF      -0.277420
     42 C28          3.8180    -3.7450    -0.1900 c3         1 TPF       0.056470
     43 H15          2.1500    -3.6740    -1.5640 hc         1 TPF       0.088800
     44 H16          2.4120    -5.2540    -0.8400 hc         1 TPF       0.088800
     45 C29          4.8900    -4.0570    -1.2440 c3         1 TPF      -0.047350
     46 H17          3.8200    -2.6680     0.0200 hc         1 TPF       0.006060
     47 H18          4.0810    -4.2450     0.7510 hc         1 TPF       0.006060
     48 C30          6.2930    -3.6210    -0.7960 c3         1 TPF       0.001760
     49 H19          4.8950    -5.1360    -1.4580 hc         1 TPF       0.027550
     50 H20          4.6380    -3.5560    -2.1900 hc         1 TPF       0.027550
     51 H21          6.2880    -2.5420    -0.5880 hc         1 TPF       0.028060
     52 H22          6.5430    -4.1190     0.1510 hc         1 TPF       0.028060
     53 C31          7.3820    -3.9360    -1.8410 c3         1 TPF       0.029400
     54 H23          7.1280    -3.4310    -2.7810 hc         1 TPF       0.024970
     55 H24          7.3840    -5.0140    -2.0370 hc         1 TPF       0.024970
     56 C32          8.7430    -3.4730    -1.3260 c3         1 TPF      -0.112910
     57 H25          8.7380    -2.3950    -1.1390 hx         1 TPF       0.099700
     58 H26          8.9920    -3.9770    -0.3880 hx         1 TPF       0.099700
     59 N1           9.9510    -3.7160    -2.2460 n4         1 TPF       0.223030
     60 C33          9.7840    -2.9920    -3.5580 c3         1 TPF      -0.408830
     61 C34         11.1810    -3.1840    -1.5510 c3         1 TPF      -0.408830
     62 C35         10.1410    -5.1890    -2.5070 c3         1 TPF      -0.408830
     63 H27         10.6930    -3.1220    -4.1470 hx         1 TPF       0.195500
     64 H28          8.9330    -3.4070    -4.0950 hx         1 TPF       0.195500
     65 H29          9.6200    -1.9320    -3.3570 hx         1 TPF       0.195500
     66 H30         11.3090    -3.7120    -0.6050 hx         1 TPF       0.195500
     67 H31         12.0490    -3.3500    -2.1910 hx         1 TPF       0.195500
     68 H32         11.0500    -2.1170    -1.3690 hx         1 TPF       0.195500
     69 H33         11.0500    -5.3250    -3.0960 hx         1 TPF       0.195500
     70 H34         10.2360    -5.7070    -1.5510 hx         1 TPF       0.195500
     71 H35          9.2840    -5.5730    -3.0580 hx         1 TPF       0.195500
     72 C36         -0.0670    -4.3980    -0.1950 c3         1 TPF      -0.277420
     73 C37         -1.3160    -4.1350     0.6570 c3         1 TPF       0.056470
     74 H36          0.0250    -5.4760    -0.3880 hc         1 TPF       0.088800
     75 H37         -0.1980    -3.9220    -1.1780 hc         1 TPF       0.088800
     76 C38         -2.6080    -4.6090    -0.0240 c3         1 TPF      -0.047350
     77 H38         -1.2120    -4.6300     1.6310 hc         1 TPF       0.006060
     78 H39         -1.3930    -3.0600     0.8610 hc         1 TPF       0.006060
     79 C39         -3.8660    -4.2300     0.7730 c3         1 TPF       0.001760
     80 H40         -2.6760    -4.1690    -1.0290 hc         1 TPF       0.027550
     81 H41         -2.5780    -5.6990    -0.1660 hc         1 TPF       0.027550
     82 H42         -3.8100    -4.6640     1.7800 hc         1 TPF       0.028060
     83 H43         -3.8900    -3.1390     0.9060 hc         1 TPF       0.028060
     84 C40         -5.1680    -4.6900     0.0870 c3         1 TPF       0.029400
     85 H44         -5.1670    -5.7850     0.0200 hc         1 TPF       0.024970
     86 H45         -5.1850    -4.2990    -0.9370 hc         1 TPF       0.024970
     87 C41         -6.3770    -4.1880     0.8730 c3         1 TPF      -0.112910
     88 H46         -6.3440    -4.5440     1.9070 hx         1 TPF       0.099700
     89 H47         -6.3930    -3.0950     0.8920 hx         1 TPF       0.099700
     90 N2          -7.7600    -4.6040     0.3470 n4         1 TPF       0.223030
     91 C42         -7.9400    -6.0980     0.4330 c3         1 TPF      -0.408830
     92 C43         -8.8060    -3.9400     1.2110 c3         1 TPF      -0.408830
     93 C44         -7.9540    -4.1540    -1.0780 c3         1 TPF      -0.408830
     94 H48         -8.9500    -6.3470     0.1040 hx         1 TPF       0.195500
     95 H49         -7.2120    -6.5880    -0.2120 hx         1 TPF       0.195500
     96 H50         -7.7980    -6.4120     1.4680 hx         1 TPF       0.195500
     97 H51         -8.7080    -2.8570     1.1180 hx         1 TPF       0.195500
     98 H52         -9.7950    -4.2520     0.8720 hx         1 TPF       0.195500
     99 H53         -8.6540    -4.2440     2.2470 hx         1 TPF       0.195500
    100 H54         -8.9790    -4.3780    -1.3780 hx         1 TPF       0.195500
    101 H55         -7.7770    -3.0790    -1.1380 hx         1 TPF       0.195500
    102 H56         -7.2570    -4.6880    -1.7230 hx         1 TPF       0.195500
    103 C45         -2.9420     4.0450     0.2810 c3         1 TPF      -0.171020
    104 H57         -2.8070     3.5230     1.2390 hc         1 TPF       0.050800
    105 H58         -3.5010     4.9610     0.5150 hc         1 TPF       0.050800
    106 C46         -3.7830     3.1670    -0.6550 c3         1 TPF      -0.012120
    107 H59         -3.2150     2.2670    -0.9250 hc         1 TPF      -0.001520
    108 H60         -3.9750     3.7040    -1.5920 hc         1 TPF      -0.001520
    109 C47         -5.1170     2.7500    -0.0200 c3         1 TPF       0.015900
    110 H61         -4.9200     2.2160     0.9220 hc         1 TPF       0.009300
    111 H62         -5.6890     3.6470     0.2560 hc         1 TPF       0.009300
    112 C48         -5.9790     1.8650    -0.9310 c3         1 TPF       0.025510
    113 H63         -5.3990     0.9780    -1.2310 hc         1 TPF       0.004420
    114 H64         -6.2020     2.4080    -1.8610 hc         1 TPF       0.004420
    115 C49         -7.2930     1.4180    -0.2770 c3         1 TPF      -0.056020
    116 H65         -7.8630     2.3050     0.0340 hc         1 TPF       0.007350
    117 H66         -7.0690     0.8660     0.6490 hc         1 TPF       0.007350
    118 C50         -8.1750     0.5540    -1.1870 c3         1 TPF       0.000390
    119 H67         -7.6040    -0.3310    -1.5200 hc         1 TPF      -0.003370
    120 H68         -8.4110     1.1130    -2.1030 hc         1 TPF      -0.003370
    121 C51         -9.4840     0.1000    -0.5270 c3         1 TPF       0.189110
    122 H69        -10.0340     0.9820    -0.1740 hc         1 TPF      -0.025010
    123 H70         -9.2520    -0.4810     0.3820 hc         1 TPF      -0.025010
    124 C52         -0.8580     5.3350     0.8640 c3         1 TPF      -0.171020
    125 H71         -1.5190     6.1900     1.0640 hc         1 TPF       0.050800
    126 H72         -0.8340     4.7490     1.7940 hc         1 TPF       0.050800
    127 C53          0.5530     5.8520     0.5570 c3         1 TPF      -0.012120
    128 H73          0.5360     6.4460    -0.3650 hc         1 TPF      -0.001520
    129 H74          1.2240     5.0030     0.3650 hc         1 TPF      -0.001520
    130 C54          1.1280     6.7040     1.6980 c3         1 TPF       0.015900
    131 H75          0.4590     7.5560     1.8890 hc         1 TPF       0.009300
    132 H76          1.1390     6.1130     2.6260 hc         1 TPF       0.009300
    133 C55          2.5420     7.2260     1.4140 c3         1 TPF       0.025510
    134 H77          2.5310     7.8150     0.4850 hc         1 TPF       0.004420
    135 H78          3.2120     6.3740     1.2230 hc         1 TPF       0.004420
    136 C56          3.1200     8.0800     2.5500 c3         1 TPF      -0.056020
    137 H79          3.1270     7.4920     3.4800 hc         1 TPF       0.007350
    138 H80          2.4520     8.9340     2.7370 hc         1 TPF       0.007350
    139 C57          4.5360     8.5990     2.2680 c3         1 TPF       0.000390
    140 H81          4.5290     9.1870     1.3390 hc         1 TPF      -0.003370
    141 H82          5.2050     7.7450     2.0820 hc         1 TPF      -0.003370
    142 C58          5.1130     9.4550     3.4030 c3         1 TPF       0.189110
    143 H83          5.1180     8.8680     4.3330 hc         1 TPF      -0.025010
    144 H84          4.4460    10.3080     3.5870 hc         1 TPF      -0.025010
    145 C59          6.5280     9.9660     3.1150 c3         1 TPF      -0.321120
    146 H85          6.5490    10.5870     2.2110 hc         1 TPF       0.077930
    147 H86          6.9110    10.5730     3.9430 hc         1 TPF       0.077930
    148 H87          7.2270     9.1350     2.9610 hc         1 TPF       0.077930
    149 C60        -10.3880    -0.7180    -1.4540 c3         1 TPF      -0.321120
    150 H88         -9.8810    -1.6200    -1.8250 hc         1 TPF       0.077930
    151 H89        -11.3080    -1.0330    -0.9490 hc         1 TPF       0.077930
    152 H90        -10.6800    -0.1340    -2.3340 hc         1 TPF       0.077930
@<TRIPOS>BOND                                                           
     1     1     2 ar                                                   
     2     1     6 ar                                                   
     3     1     7 1                                                    
     4     2     3 ar                                                   
     5     2    21 1                                                    
     6     3     4 ar                                                   
     7     3     8 1                                                    
     8     4     5 ar                                                   
     9     4     9 1                                                    
    10     5     6 ar                                                   
    11     5    12 1                                                    
    12     6    10 1                                                    
    13    10    11 1                                                    
    14    10    41 1                                                    
    15    10    72 1                                                    
    16    11    12 ar                                                   
    17    11    13 ar                                                   
    18    12    14 ar                                                   
    19    13    15 ar                                                   
    20    13    16 1                                                    
    21    14    17 ar                                                   
    22    14    18 1                                                    
    23    15    17 ar                                                   
    24    15    19 1                                                    
    25    17    20 1                                                    
    26    21    22 ar                                                   
    27    21    23 ar                                                   
    28    22    24 ar                                                   
    29    22    25 1                                                    
    30    23    26 ar                                                   
    31    23    27 1                                                    
    32    24    28 1                                                    
    33    24    29 ar                                                   
    34    26    29 ar                                                   
    35    26    30 1                                                    
    36    28    31 1                                                    
    37    28   103 1                                                    
    38    28   124 1                                                    
    39    29    32 1                                                    
    40    31    32 ar                                                   
    41    31    33 ar                                                   
    42    32    34 ar                                                   
    43    33    35 ar                                                   
    44    33    36 1                                                    
    45    34    37 ar                                                   
    46    34    38 1                                                    
    47    35    37 ar                                                   
    48    35    39 1                                                    
    49    37    40 1                                                    
    50    41    42 1                                                    
    51    41    43 1                                                    
    52    41    44 1                                                    
    53    42    45 1                                                    
    54    42    46 1                                                    
    55    42    47 1                                                    
    56    45    48 1                                                    
    57    45    49 1                                                    
    58    45    50 1                                                    
    59    48    51 1                                                    
    60    48    52 1                                                    
    61    48    53 1                                                    
    62    53    54 1                                                    
    63    53    55 1                                                    
    64    53    56 1                                                    
    65    56    57 1                                                    
    66    56    58 1                                                    
    67    56    59 1                                                    
    68    59    60 1                                                    
    69    59    61 1                                                    
    70    59    62 1                                                    
    71    60    63 1                                                    
    72    60    64 1                                                    
    73    60    65 1                                                    
    74    61    66 1                                                    
    75    61    67 1                                                    
    76    61    68 1                                                    
    77    62    69 1                                                    
    78    62    70 1                                                    
    79    62    71 1                                                    
    80    72    73 1                                                    
    81    72    74 1                                                    
    82    72    75 1                                                    
    83    73    76 1                                                    
    84    73    77 1                                                    
    85    73    78 1                                                    
    86    76    79 1                                                    
    87    76    80 1                                                    
    88    76    81 1                                                    
    89    79    82 1                                                    
    90    79    83 1                                                    
    91    79    84 1                                                    
    92    84    85 1                                                    
    93    84    86 1                                                    
    94    84    87 1                                                    
    95    87    88 1                                                    
    96    87    89 1                                                    
    97    87    90 1                                                    
    98    90    91 1                                                    
    99    90    92 1                                                    
   100    90    93 1                                                    
   101    91    94 1                                                    
   102    91    95 1                                                    
   103    91    96 1                                                    
   104    92    97 1                                                    
   105    92    98 1                                                    
   106    92    99 1                                                    
   107    93   100 1                                                    
   108    93   101 1                                                    
   109    93   102 1                                                    
   110   103   104 1                                                    
   111   103   105 1                                                    
   112   103   106 1                                                    
   113   106   107 1                                                    
   114   106   108 1                                                    
   115   106   109 1                                                    
   116   109   110 1                                                    
   117   109   111 1                                                    
   118   109   112 1                                                    
   119   112   113 1                                                    
   120   112   114 1                                                    
   121   112   115 1                                                    
   122   115   116 1                                                    
   123   115   117 1                                                    
   124   115   118 1                                                    
   125   118   119 1                                                    
   126   118   120 1                                                    
   127   118   121 1                                                    
   128   121   122 1                                                    
   129   121   123 1                                                    
   130   121   149 1                                                    
   131   124   125 1                                                    
   132   124   126 1                                                    
   133   124   127 1                                                    
   134   127   128 1                                                    
   135   127   129 1                                                    
   136   127   130 1                                                    
   137   130   131 1                                                    
   138   130   132 1                                                    
   139   130   133 1                                                    
   140   133   134 1                                                    
   141   133   135 1                                                    
   142   133   136 1                                                    
   143   136   137 1                                                    
   144   136   138 1                                                    
   145   136   139 1                                                    
   146   139   140 1                                                    
   147   139   141 1                                                    
   148   139   142 1                                                    
   149   142   143 1                                                    
   150   142   144 1   
   151   142   145 1   
   152   145   146 1   
   153   145   147 1   
   154   145   148 1   
   155   149   150 1   
   156   149   151 1   
   157   149   152 1   
@<TRIPOS>SUBSTRUCTURE
     1 TPF         1 TEMP              0 ****  ****    0 ROOT
